<?xml version="1.0" encoding="UTF-8"?>

<!-- generated on 2022-11-04 21:37:10 by Eclipse SUMO netedit Version 1.14.1
<configuration xmlns:xsi="http://www.w3.org/2001/XMLSchema-instance" xsi:noNamespaceSchemaLocation="http://sumo.dlr.de/xsd/netconvertConfiguration.xsd">

    <input>
        <sumo-net-file value="C:\Users\Asus\Desktop\Egyetem\Szakdolgozat\7-8.hét\újra\mtfc\freeway.net.xml"/>
    </input>

    <output>
        <output-file value="C:\Users\Asus\Desktop\Egyetem\Szakdolgozat\7-8.hét\újra\mtfc\freeway.net.xml"/>
    </output>

    <processing>
        <geometry.min-radius.fix.railways value="false"/>
        <geometry.max-grade.fix value="false"/>
        <offset.disable-normalization value="true"/>
        <lefthand value="false"/>
    </processing>

    <junctions>
        <no-turnarounds value="true"/>
        <junctions.corner-detail value="5"/>
        <junctions.limit-turn-speed value="5.5"/>
        <rectangular-lane-cut value="false"/>
    </junctions>

    <pedestrian>
        <walkingareas value="false"/>
    </pedestrian>

</configuration>
-->

<net version="1.9" junctionCornerDetail="5" limitTurnSpeed="5.50" xmlns:xsi="http://www.w3.org/2001/XMLSchema-instance" xsi:noNamespaceSchemaLocation="http://sumo.dlr.de/xsd/net_file.xsd">

    <location netOffset="0.00,0.00" convBoundary="-2000.00,0.00,6500.00,0.00" origBoundary="-10000000000.00,-10000000000.00,10000000000.00,10000000000.00" projParameter="!"/>

    <edge id=":J0_0" function="internal">
        <lane id=":J0_0_0" index="0" speed="36.11" length="0.10" shape="-1000.00,-8.00 -1000.00,-8.00"/>
        <lane id=":J0_0_1" index="1" speed="36.11" length="0.10" shape="-1000.00,-4.80 -1000.00,-4.80"/>
        <lane id=":J0_0_2" index="2" speed="36.11" length="0.10" shape="-1000.00,-1.60 -1000.00,-1.60"/>
    </edge>
    <edge id=":J3_0" function="internal">
        <lane id=":J3_0_0" index="0" speed="36.11" length="0.10" shape="0.00,-8.00 0.00,-8.00"/>
        <lane id=":J3_0_1" index="1" speed="36.11" length="0.10" shape="0.00,-4.80 0.00,-4.80"/>
        <lane id=":J3_0_2" index="2" speed="36.11" length="0.10" shape="0.00,-1.60 0.00,-1.60"/>
    </edge>
    <edge id=":J4_0" function="internal">
        <lane id=":J4_0_0" index="0" speed="36.11" length="0.10" shape="1000.00,-8.00 1000.00,-8.00"/>
        <lane id=":J4_0_1" index="1" speed="36.11" length="0.10" shape="1000.00,-4.80 1000.00,-4.80"/>
        <lane id=":J4_0_2" index="2" speed="36.11" length="0.10" shape="1000.00,-1.60 1000.00,-1.60"/>
    </edge>
    <edge id=":J5_0" function="internal">
        <lane id=":J5_0_0" index="0" speed="36.11" length="0.10" shape="3800.00,-8.00 3800.00,-8.00"/>
        <lane id=":J5_0_1" index="1" speed="36.11" length="0.10" shape="3800.00,-4.80 3800.00,-4.80"/>
        <lane id=":J5_0_2" index="2" speed="36.11" length="0.10" shape="3800.00,-1.60 3800.00,-1.60"/>
    </edge>
    <edge id=":J6_0" function="internal">
        <lane id=":J6_0_0" index="0" speed="36.11" length="8.00" shape="4496.00,-4.80 4504.00,-4.80"/>
        <lane id=":J6_0_1" index="1" speed="36.11" length="8.00" shape="4496.00,-1.60 4504.00,-1.60"/>
    </edge>
    <edge id=":J7_0" function="internal">
        <lane id=":J7_0_0" index="0" speed="36.11" length="8.54" shape="4996.00,-4.80 4998.46,-5.30 5000.00,-6.40 5001.54,-7.50 5004.00,-8.00"/>
        <lane id=":J7_0_1" index="1" speed="36.11" length="8.54" shape="4996.00,-1.60 4998.46,-2.10 5000.00,-3.20 5001.54,-4.30 5004.00,-4.80"/>
        <lane id=":J7_0_2" index="2" speed="36.11" length="8.54" shape="4996.00,-1.60 5004.00,-1.60"/>
    </edge>
    <edge id=":J9_0" function="internal">
        <lane id=":J9_0_0" index="0" speed="36.11" length="0.10" shape="1910.00,-8.00 1910.00,-8.00"/>
        <lane id=":J9_0_1" index="1" speed="36.11" length="0.10" shape="1910.00,-4.80 1910.00,-4.80"/>
        <lane id=":J9_0_2" index="2" speed="36.11" length="0.10" shape="1910.00,-1.60 1910.00,-1.60"/>
    </edge>

    <edge id="eBottleneck" from="J6" to="J7" priority="-1">
        <lane id="eBottleneck_0" index="0" speed="36.11" length="492.00" shape="4504.00,-4.80 4996.00,-4.80"/>
        <lane id="eBottleneck_1" index="1" speed="36.11" length="492.00" shape="4504.00,-1.60 4996.00,-1.60"/>
    </edge>
    <edge id="eDepart" from="J1" to="J0" priority="-1">
        <lane id="eDepart_0" index="0" speed="36.11" length="1000.00" shape="-2000.00,-8.00 -1000.00,-8.00"/>
        <lane id="eDepart_1" index="1" speed="36.11" length="1000.00" shape="-2000.00,-4.80 -1000.00,-4.80"/>
        <lane id="eDepart_2" index="2" speed="36.11" length="1000.00" shape="-2000.00,-1.60 -1000.00,-1.60"/>
    </edge>
    <edge id="eDetected" from="J3" to="J4" priority="-1">
        <lane id="eDetected_0" index="0" speed="36.11" length="1000.00" shape="0.00,-8.00 1000.00,-8.00"/>
        <lane id="eDetected_1" index="1" speed="36.11" length="1000.00" shape="0.00,-4.80 1000.00,-4.80"/>
        <lane id="eDetected_2" index="2" speed="36.11" length="1000.00" shape="0.00,-1.60 1000.00,-1.60"/>
    </edge>
    <edge id="eEnd" from="J7" to="J8" priority="-1" length="1000.00">
        <lane id="eEnd_0" index="0" speed="36.11" length="1000.00" shape="5004.00,-8.00 6500.00,-8.00"/>
        <lane id="eEnd_1" index="1" speed="36.11" length="1000.00" shape="5004.00,-4.80 6500.00,-4.80"/>
        <lane id="eEnd_2" index="2" speed="36.11" length="1000.00" shape="5004.00,-1.60 6500.00,-1.60"/>
    </edge>
    <edge id="eInflow" from="J5" to="J6" priority="-1" length="1000.00">
        <lane id="eInflow_0" index="0" speed="36.11" length="1000.00" shape="3800.00,-8.00 4496.00,-8.00"/>
        <lane id="eInflow_1" index="1" speed="36.11" length="1000.00" shape="3800.00,-4.80 4496.00,-4.80"/>
        <lane id="eInflow_2" index="2" speed="36.11" length="1000.00" shape="3800.00,-1.60 4496.00,-1.60"/>
    </edge>
    <edge id="eSpeedControlled" from="J9" to="J5" priority="-1" length="1000.00">
        <lane id="eSpeedControlled_0" index="0" speed="36.11" length="1000.00" shape="1910.00,-8.00 3800.00,-8.00"/>
        <lane id="eSpeedControlled_1" index="1" speed="36.11" length="1000.00" shape="1910.00,-4.80 3800.00,-4.80"/>
        <lane id="eSpeedControlled_2" index="2" speed="36.11" length="1000.00" shape="1910.00,-1.60 3800.00,-1.60"/>
    </edge>
    <edge id="eSpeedControlledInflow" from="J4" to="J9" priority="-1" length="1000.00">
        <lane id="eSpeedControlledInflow_0" index="0" speed="36.11" length="1000.00" shape="1000.00,-8.00 1910.00,-8.00"/>
        <lane id="eSpeedControlledInflow_1" index="1" speed="36.11" length="1000.00" shape="1000.00,-4.80 1910.00,-4.80"/>
        <lane id="eSpeedControlledInflow_2" index="2" speed="36.11" length="1000.00" shape="1000.00,-1.60 1910.00,-1.60"/>
    </edge>
    <edge id="eStart" from="J0" to="J3" priority="-1">
        <lane id="eStart_0" index="0" speed="36.11" length="1000.00" shape="-1000.00,-8.00 0.00,-8.00"/>
        <lane id="eStart_1" index="1" speed="36.11" length="1000.00" shape="-1000.00,-4.80 0.00,-4.80"/>
        <lane id="eStart_2" index="2" speed="36.11" length="1000.00" shape="-1000.00,-1.60 0.00,-1.60"/>
    </edge>

    <junction id="J0" type="priority" x="-1000.00" y="0.00" incLanes="eDepart_0 eDepart_1 eDepart_2" intLanes=":J0_0_0 :J0_0_1 :J0_0_2" shape="-1000.00,0.00 -1000.00,-9.60 -1000.00,0.00">
        <request index="0" response="000" foes="000" cont="0"/>
        <request index="1" response="000" foes="000" cont="0"/>
        <request index="2" response="000" foes="000" cont="0"/>
    </junction>
    <junction id="J1" type="dead_end" x="-2000.00" y="0.00" incLanes="" intLanes="" shape="-2000.00,0.00 -2000.00,-9.60"/>
    <junction id="J2" type="dead_end" x="0.00" y="0.00" incLanes="" intLanes="" shape="0.00,0.00"/>
    <junction id="J3" type="priority" x="0.00" y="0.00" incLanes="eStart_0 eStart_1 eStart_2" intLanes=":J3_0_0 :J3_0_1 :J3_0_2" shape="0.00,0.00 0.00,-9.60 0.00,0.00">
        <request index="0" response="000" foes="000" cont="0"/>
        <request index="1" response="000" foes="000" cont="0"/>
        <request index="2" response="000" foes="000" cont="0"/>
    </junction>
    <junction id="J4" type="priority" x="1000.00" y="0.00" incLanes="eDetected_0 eDetected_1 eDetected_2" intLanes=":J4_0_0 :J4_0_1 :J4_0_2" shape="1000.00,0.00 1000.00,-9.60 1000.00,0.00">
        <request index="0" response="000" foes="000" cont="0"/>
        <request index="1" response="000" foes="000" cont="0"/>
        <request index="2" response="000" foes="000" cont="0"/>
    </junction>
    <junction id="J5" type="priority" x="3800.00" y="0.00" incLanes="eSpeedControlled_0 eSpeedControlled_1 eSpeedControlled_2" intLanes=":J5_0_0 :J5_0_1 :J5_0_2" shape="3800.00,0.00 3800.00,-9.60 3800.00,0.00">
        <request index="0" response="000" foes="000" cont="0"/>
        <request index="1" response="000" foes="000" cont="0"/>
        <request index="2" response="000" foes="000" cont="0"/>
    </junction>
    <junction id="J6" type="priority" x="4500.00" y="0.00" incLanes="eInflow_0 eInflow_1 eInflow_2" intLanes=":J6_0_0 :J6_0_1" shape="4504.00,0.00 4504.00,-6.40 4500.97,-7.23 4499.03,-8.77 4497.79,-9.36 4496.00,-9.60 4496.00,0.00">
        <request index="0" response="00" foes="00" cont="0"/>
        <request index="1" response="00" foes="00" cont="0"/>
    </junction>
    <junction id="J7" type="priority" x="5000.00" y="0.00" incLanes="eBottleneck_0 eBottleneck_1" intLanes=":J7_0_0 :J7_0_1 :J7_0_2" shape="5004.00,0.00 5004.00,-9.60 5000.97,-8.77 4999.03,-7.23 4997.79,-6.64 4996.00,-6.40 4996.00,0.00">
        <request index="0" response="000" foes="000" cont="0"/>
        <request index="1" response="000" foes="000" cont="0"/>
        <request index="2" response="000" foes="000" cont="0"/>
    </junction>
    <junction id="J8" type="dead_end" x="6500.00" y="0.00" incLanes="eEnd_0 eEnd_1 eEnd_2" intLanes="" shape="6500.00,-9.60 6500.00,0.00"/>
    <junction id="J9" type="priority" x="1910.00" y="0.00" incLanes="eSpeedControlledInflow_0 eSpeedControlledInflow_1 eSpeedControlledInflow_2" intLanes=":J9_0_0 :J9_0_1 :J9_0_2" shape="1910.00,0.00 1910.00,-9.60 1910.00,0.00">
        <request index="0" response="000" foes="000" cont="0"/>
        <request index="1" response="000" foes="000" cont="0"/>
        <request index="2" response="000" foes="000" cont="0"/>
    </junction>

    <connection from="eBottleneck" to="eEnd" fromLane="0" toLane="0" via=":J7_0_0" dir="s" state="M"/>
    <connection from="eBottleneck" to="eEnd" fromLane="1" toLane="1" via=":J7_0_1" dir="s" state="M"/>
    <connection from="eBottleneck" to="eEnd" fromLane="1" toLane="2" via=":J7_0_2" dir="s" state="M"/>
    <connection from="eDepart" to="eStart" fromLane="0" toLane="0" via=":J0_0_0" dir="s" state="M"/>
    <connection from="eDepart" to="eStart" fromLane="1" toLane="1" via=":J0_0_1" dir="s" state="M"/>
    <connection from="eDepart" to="eStart" fromLane="2" toLane="2" via=":J0_0_2" dir="s" state="M"/>
    <connection from="eDetected" to="eSpeedControlledInflow" fromLane="0" toLane="0" via=":J4_0_0" dir="s" state="M"/>
    <connection from="eDetected" to="eSpeedControlledInflow" fromLane="1" toLane="1" via=":J4_0_1" dir="s" state="M"/>
    <connection from="eDetected" to="eSpeedControlledInflow" fromLane="2" toLane="2" via=":J4_0_2" dir="s" state="M"/>
    <connection from="eInflow" to="eBottleneck" fromLane="1" toLane="0" via=":J6_0_0" dir="s" state="M"/>
    <connection from="eInflow" to="eBottleneck" fromLane="2" toLane="1" via=":J6_0_1" dir="s" state="M"/>
    <connection from="eSpeedControlled" to="eInflow" fromLane="0" toLane="0" via=":J5_0_0" dir="s" state="M"/>
    <connection from="eSpeedControlled" to="eInflow" fromLane="1" toLane="1" via=":J5_0_1" dir="s" state="M"/>
    <connection from="eSpeedControlled" to="eInflow" fromLane="2" toLane="2" via=":J5_0_2" dir="s" state="M"/>
    <connection from="eSpeedControlledInflow" to="eSpeedControlled" fromLane="0" toLane="0" via=":J9_0_0" dir="s" state="M"/>
    <connection from="eSpeedControlledInflow" to="eSpeedControlled" fromLane="1" toLane="1" via=":J9_0_1" dir="s" state="M"/>
    <connection from="eSpeedControlledInflow" to="eSpeedControlled" fromLane="2" toLane="2" via=":J9_0_2" dir="s" state="M"/>
    <connection from="eStart" to="eDetected" fromLane="0" toLane="0" via=":J3_0_0" dir="s" state="M"/>
    <connection from="eStart" to="eDetected" fromLane="1" toLane="1" via=":J3_0_1" dir="s" state="M"/>
    <connection from="eStart" to="eDetected" fromLane="2" toLane="2" via=":J3_0_2" dir="s" state="M"/>

    <connection from=":J0_0" to="eStart" fromLane="0" toLane="0" dir="s" state="M"/>
    <connection from=":J0_0" to="eStart" fromLane="1" toLane="1" dir="s" state="M"/>
    <connection from=":J0_0" to="eStart" fromLane="2" toLane="2" dir="s" state="M"/>
    <connection from=":J3_0" to="eDetected" fromLane="0" toLane="0" dir="s" state="M"/>
    <connection from=":J3_0" to="eDetected" fromLane="1" toLane="1" dir="s" state="M"/>
    <connection from=":J3_0" to="eDetected" fromLane="2" toLane="2" dir="s" state="M"/>
    <connection from=":J4_0" to="eSpeedControlledInflow" fromLane="0" toLane="0" dir="s" state="M"/>
    <connection from=":J4_0" to="eSpeedControlledInflow" fromLane="1" toLane="1" dir="s" state="M"/>
    <connection from=":J4_0" to="eSpeedControlledInflow" fromLane="2" toLane="2" dir="s" state="M"/>
    <connection from=":J5_0" to="eInflow" fromLane="0" toLane="0" dir="s" state="M"/>
    <connection from=":J5_0" to="eInflow" fromLane="1" toLane="1" dir="s" state="M"/>
    <connection from=":J5_0" to="eInflow" fromLane="2" toLane="2" dir="s" state="M"/>
    <connection from=":J6_0" to="eBottleneck" fromLane="0" toLane="0" dir="s" state="M"/>
    <connection from=":J6_0" to="eBottleneck" fromLane="1" toLane="1" dir="s" state="M"/>
    <connection from=":J7_0" to="eEnd" fromLane="0" toLane="0" dir="s" state="M"/>
    <connection from=":J7_0" to="eEnd" fromLane="1" toLane="1" dir="s" state="M"/>
    <connection from=":J7_0" to="eEnd" fromLane="2" toLane="2" dir="s" state="M"/>
    <connection from=":J9_0" to="eSpeedControlled" fromLane="0" toLane="0" dir="s" state="M"/>
    <connection from=":J9_0" to="eSpeedControlled" fromLane="1" toLane="1" dir="s" state="M"/>
    <connection from=":J9_0" to="eSpeedControlled" fromLane="2" toLane="2" dir="s" state="M"/>

</net>
