<routes>
    <vType id="normal_car"
        vClass="passenger" length="5" accel="0.8" 
        sigma="0.5" maxSpeed="40" speedFactor="1"
        treaction="1.3"/>

    <vType id="sportly_car"
        vClass="passenger" length="5" accel="1" 
        sigma="0.6" maxSpeed="40" speedFactor="1.2"
        treaction="1.3"/>

    <vType id="bus"
        vClass="coach" accel="0.8" 
        sigma="0.6" maxSpeed="27.78" speedFactor="0.95"
        treaction="1.3"/>

    <vType id="truck"
        vClass="trailer" accel="0.8" 
        sigma="0.5" maxSpeed="26.4" speedFactor="1"
        treaction="1.3"/>

    <route id="route_0" edges="eStart e0 e1 e2 e3 eEnd" />
    
    <flow id="normal_carfow" type="normal_car" beg="0" end="4000" number="4000" from="eStart" to="eEnd" departLane="best"/>
    <flow id="sportly_carflow" type="sportly_car" beg="0" end="4000" number="200" from="eStart" to="eEnd" departLane="best"/>
    <flow id="bus_flow" type="bus" beg="0" end="4000" number="300" from="eStart" to="eEnd" departLane="best"/>
    <flow id="truck_flow" type="truck" beg="0" end="4000" number="300" from="eStart" to="eEnd" departLane="best"/>
    <vehicle id="0" type="normal_car" route="route_0" depart="50"/>
    <vehicle id="1" type="normal_car" route="route_0" depart="2500"/>
    <vehicle id="2" type="normal_car" route="route_0" depart="7500"/>
    <vehicle id="3" type="normal_car" route="route_0" depart="9000"/>
    <vehicle id="4" type="normal_car" route="route_0" depart="11500"/>
    
</routes>